ieee123_base/ieee123_VLN_Node.txt

LINE-GROUND and LINE-LINE VOLTAGES BY BUS & NODE

Bus  Node    VLN (kV)   Angle      pu     Base kV    Node-Node   VLL (kV)  Angle      pu

150 ........ 1       2.4018 /_    0.0   0.99999     4.160        1-2       4.16 /_   30.0   0.99999
   -         2       2.4018 /_ -120.0         1     4.160        2-3       4.16 /_  -90.0         1
   -         3       2.4018 /_  120.0         1     4.160        3-1       4.16 /_  150.0         1
150R ....... 1       2.4768 /_    0.0    1.0312     4.160        1-2       4.29 /_   30.0    1.0312
   -         2       2.4768 /_ -120.0    1.0312     4.160        2-3       4.29 /_  -90.0    1.0312
   -         3       2.4768 /_  120.0    1.0312     4.160        3-1       4.29 /_  150.0    1.0312
149 ........ 1       2.4768 /_    0.0    1.0312     4.160        1-2       4.29 /_   30.0    1.0312
   -         2       2.4768 /_ -120.0    1.0312     4.160        2-3       4.29 /_  -90.0    1.0312
   -         3       2.4768 /_  120.0    1.0312     4.160        3-1       4.29 /_  150.0    1.0312
1 .......... 1       2.4557 /_   -0.5    1.0225     4.160        1-2     4.2633 /_   29.7    1.0248
   -         2       2.4736 /_ -120.3    1.0299     4.160        2-3     4.2756 /_  -90.4    1.0278
   -         3       2.4621 /_  119.7    1.0251     4.160        3-1     4.2634 /_  149.5    1.0248
2 .......... 2       2.4732 /_ -120.3    1.0297     4.160
3 .......... 3       2.4591 /_  119.7    1.0239     4.160
7 .......... 1         2.44 /_   -0.9    1.0159     4.160        1-2      4.244 /_   29.5    1.0202
   -         2       2.4713 /_ -120.5    1.0289     4.160        2-3     4.2656 /_  -90.6    1.0254
   -         3       2.4528 /_  119.5    1.0213     4.160        3-1     4.2453 /_  149.2    1.0205
4 .......... 3       2.4582 /_  119.7    1.0235     4.160
5 .......... 3       2.4568 /_  119.7    1.0229     4.160
6 .......... 3       2.4555 /_  119.6    1.0224     4.160
8 .......... 1       2.4298 /_   -1.1    1.0117     4.160        1-2     4.2314 /_   29.4    1.0172
   -         2       2.4697 /_ -120.6    1.0283     4.160        2-3      4.259 /_  -90.8    1.0238
   -         3       2.4467 /_  119.4    1.0187     4.160        3-1     4.2333 /_  149.0    1.0176
12 ......... 2       2.4691 /_ -120.6    1.0281     4.160
9 .......... 1       2.4271 /_   -1.1    1.0105     4.160
13 ......... 1       2.4164 /_   -1.5    1.0061     4.160        1-2     4.2138 /_   29.2    1.0129
   -         2       2.4666 /_ -120.8     1.027     4.160        2-3     4.2492 /_  -91.0    1.0214
   -         3       2.4374 /_  119.1    1.0148     4.160        3-1     4.2161 /_  148.7    1.0135
9R ......... 1       2.3968 /_   -1.1   0.99791     4.160
14 ......... 1       2.3937 /_   -1.2   0.99665     4.160
34 ......... 3       2.4356 /_  119.1    1.0141     4.160
18 ......... 1          2.4 /_   -1.8   0.99926     4.160        1-2     4.1905 /_   29.0    1.0073
   -         2       2.4591 /_ -121.0    1.0239     4.160        2-3     4.2281 /_  -91.2    1.0164
   -         3       2.4239 /_  119.1    1.0092     4.160        3-1     4.1958 /_  148.5    1.0086
11 ......... 1       2.3925 /_   -1.2   0.99615     4.160
10 ......... 1       2.3931 /_   -1.2    0.9964     4.160
15 ......... 3       2.4349 /_  119.1    1.0138     4.160
16 ......... 3       2.4332 /_  119.1    1.0131     4.160
17 ......... 3       2.4341 /_  119.1    1.0135     4.160
19 ......... 1       2.3976 /_   -1.8   0.99827     4.160
21 ......... 1        2.399 /_   -1.8   0.99885     4.160        1-2     4.1889 /_   29.0    1.0069
   -         2       2.4592 /_ -121.0    1.0239     4.160        2-3     4.2267 /_  -91.2     1.016
   -         3       2.4218 /_  119.1    1.0083     4.160        3-1     4.1936 /_  148.5    1.0081
20 ......... 1       2.3961 /_   -1.8   0.99762     4.160
22 ......... 2       2.4567 /_ -121.0    1.0229     4.160
23 ......... 1       2.3983 /_   -1.9   0.99853     4.160        1-2     4.1877 /_   29.0    1.0067
   -         2       2.4599 /_ -120.9    1.0242     4.160        2-3     4.2261 /_  -91.2    1.0159
   -         3       2.4197 /_  119.0    1.0075     4.160        3-1     4.1917 /_  148.4    1.0076
24 ......... 3       2.4171 /_  119.0    1.0064     4.160
25 ......... 1        2.397 /_   -1.9   0.99803     4.160        1-2     4.1863 /_   29.0    1.0063
   -         2       2.4607 /_ -120.9    1.0246     4.160        2-3     4.2255 /_  -91.2    1.0158
   -         3       2.4181 /_  119.0    1.0068     4.160        3-1     4.1901 /_  148.4    1.0072
25R ........ 1        2.397 /_   -1.9   0.99803     4.160
   -         3        2.403 /_  119.0    1.0005     4.160        3-1      4.177 /_  148.5    1.0041
26 ......... 1       2.3966 /_   -1.9   0.99784     4.160
   -         3       2.4021 /_  119.0    1.0001     4.160        3-1      4.176 /_  148.5    1.0039
28 ......... 1       2.3964 /_   -1.9   0.99775     4.160        1-2     4.1856 /_   29.0    1.0062
   -         2       2.4612 /_ -120.9    1.0247     4.160        2-3     4.2253 /_  -91.2    1.0157
   -         3       2.4175 /_  119.1    1.0066     4.160        3-1     4.1895 /_  148.4    1.0071
27 ......... 1       2.3959 /_   -1.9   0.99756     4.160
   -         3       2.4021 /_  119.0    1.0001     4.160        3-1     4.1758 /_  148.5    1.0038
31 ......... 3        2.401 /_  119.0   0.99969     4.160
33 ......... 1       2.3935 /_   -2.0   0.99657     4.160
29 ......... 1       2.3961 /_   -1.9   0.99762     4.160        1-2     4.1852 /_   29.0     1.006
   -         2       2.4614 /_ -120.9    1.0248     4.160        2-3     4.2251 /_  -91.2    1.0156
   -         3       2.4167 /_  119.0    1.0062     4.160        3-1     4.1888 /_  148.4    1.0069
30 ......... 1       2.3965 /_   -2.0   0.99782     4.160        1-2     4.1853 /_   29.0    1.0061
   -         2       2.4614 /_ -120.9    1.0248     4.160        2-3     4.2248 /_  -91.3    1.0156
   -         3       2.4159 /_  119.0    1.0059     4.160        3-1     4.1882 /_  148.4    1.0068
250 ........ 1       2.3965 /_   -2.0   0.99782     4.160        1-2     4.1853 /_   29.0    1.0061
   -         2       2.4614 /_ -120.9    1.0248     4.160        2-3     4.2248 /_  -91.3    1.0156
   -         3       2.4159 /_  119.0    1.0059     4.160        3-1     4.1882 /_  148.4    1.0068
32 ......... 3       2.4003 /_  119.0   0.99939     4.160
35 ......... 1        2.395 /_   -1.9   0.99717     4.160        1-2     4.1822 /_   29.0    1.0053
   -         2       2.4545 /_ -121.0     1.022     4.160        2-3     4.2221 /_  -91.2    1.0149
   -         3        2.422 /_  119.0    1.0084     4.160        3-1     4.1901 /_  148.4    1.0072
36 ......... 1       2.3933 /_   -1.9   0.99646     4.160        1-2     4.1804 /_   29.0    1.0049
   -         2       2.4537 /_ -121.1    1.0216     4.160
40 ......... 1       2.3922 /_   -1.9   0.99602     4.160        1-2     4.1782 /_   28.9    1.0044
   -         2       2.4524 /_ -121.1    1.0211     4.160        2-3     4.2186 /_  -91.3    1.0141
   -         3       2.4201 /_  119.0    1.0076     4.160        3-1     4.1859 /_  148.4    1.0062
37 ......... 1       2.3919 /_   -1.9   0.99587     4.160
38 ......... 2       2.4525 /_ -121.1    1.0211     4.160
39 ......... 2       2.4517 /_ -121.1    1.0208     4.160
41 ......... 3       2.4193 /_  119.0    1.0073     4.160
42 ......... 1       2.3893 /_   -1.9   0.99482     4.160        1-2     4.1742 /_   28.9    1.0034
   -         2       2.4504 /_ -121.1    1.0202     4.160        2-3     4.2152 /_  -91.3    1.0133
   -         3       2.4185 /_  119.0    1.0069     4.160        3-1      4.182 /_  148.3    1.0053
43 ......... 2        2.448 /_ -121.1    1.0192     4.160
44 ......... 1       2.3874 /_   -1.9     0.994     4.160        1-2     4.1714 /_   28.9    1.0027
   -         2       2.4491 /_ -121.1    1.0197     4.160        2-3     4.2129 /_  -91.3    1.0127
   -         3        2.417 /_  118.9    1.0063     4.160        3-1     4.1789 /_  148.3    1.0046
45 ......... 1       2.3864 /_   -1.9    0.9936     4.160
47 ......... 1       2.3855 /_   -1.9   0.99322     4.160        1-2     4.1682 /_   28.9     1.002
   -         2       2.4472 /_ -121.1    1.0189     4.160        2-3     4.2098 /_  -91.3     1.012
   -         3       2.4151 /_  118.9    1.0056     4.160        3-1     4.1753 /_  148.3    1.0037
46 ......... 1       2.3857 /_   -1.9    0.9933     4.160
48 ......... 1        2.385 /_   -2.0   0.99301     4.160        1-2     4.1673 /_   28.9    1.0018
   -         2       2.4467 /_ -121.1    1.0187     4.160        2-3     4.2091 /_  -91.3    1.0118
   -         3       2.4147 /_  118.9    1.0054     4.160        3-1     4.1745 /_  148.3    1.0035
49 ......... 1        2.385 /_   -2.0   0.99301     4.160        1-2     4.1669 /_   28.9    1.0017
   -         2       2.4462 /_ -121.1    1.0185     4.160        2-3     4.2087 /_  -91.3    1.0117
   -         3       2.4146 /_  118.9    1.0053     4.160        3-1     4.1741 /_  148.3    1.0034
50 ......... 1        2.385 /_   -2.0   0.99299     4.160        1-2     4.1666 /_   28.9    1.0016
   -         2       2.4462 /_ -121.1    1.0185     4.160        2-3     4.2086 /_  -91.3    1.0117
   -         3        2.414 /_  118.9    1.0051     4.160        3-1     4.1735 /_  148.3    1.0033
51 ......... 1       2.3847 /_   -2.0   0.99287     4.160        1-2     4.1664 /_   28.9    1.0015
   -         2       2.4464 /_ -121.1    1.0186     4.160        2-3     4.2086 /_  -91.3    1.0117
   -         3       2.4139 /_  118.9    1.0051     4.160        3-1     4.1735 /_  148.3    1.0032
151 ........ 1       2.3847 /_   -2.0   0.99287     4.160        1-2     4.1664 /_   28.9    1.0015
   -         2       2.4464 /_ -121.1    1.0186     4.160        2-3     4.2086 /_  -91.3    1.0117
   -         3       2.4139 /_  118.9    1.0051     4.160        3-1     4.1735 /_  148.3    1.0032
52 ......... 1       2.4069 /_   -1.8    1.0021     4.160        1-2     4.2025 /_   29.0    1.0102
   -         2       2.4655 /_ -121.0    1.0265     4.160        2-3     4.2445 /_  -91.2    1.0203
   -         3        2.433 /_  118.9     1.013     4.160        3-1     4.2062 /_  148.4    1.0111
53 ......... 1       2.4027 /_   -1.9    1.0004     4.160        1-2     4.1972 /_   28.9    1.0089
   -         2       2.4647 /_ -121.1    1.0262     4.160        2-3     4.2421 /_  -91.3    1.0197
   -         3       2.4308 /_  118.8    1.0121     4.160        3-1     4.2014 /_  148.3    1.0099
54 ......... 1       2.4003 /_   -2.0    0.9994     4.160        1-2     4.1941 /_   28.9    1.0082
   -         2        2.464 /_ -121.1    1.0259     4.160        2-3     4.2405 /_  -91.4    1.0194
   -         3       2.4294 /_  118.8    1.0115     4.160        3-1     4.1984 /_  148.2    1.0092
55 ......... 1       2.3999 /_   -2.0   0.99924     4.160        1-2     4.1937 /_   28.9    1.0081
   -         2       2.4639 /_ -121.1    1.0258     4.160        2-3     4.2403 /_  -91.4    1.0193
   -         3       2.4296 /_  118.8    1.0116     4.160        3-1     4.1983 /_  148.2    1.0092
57 ......... 1       2.3959 /_   -2.2   0.99756     4.160        1-2     4.1854 /_   28.7    1.0061
   -         2         2.46 /_ -121.3    1.0242     4.160        2-3      4.234 /_  -91.6    1.0178
   -         3       2.4258 /_  118.6      1.01     4.160        3-1     4.1928 /_  148.0    1.0079
56 ......... 1       2.3999 /_   -2.0   0.99921     4.160        1-2     4.1936 /_   28.9    1.0081
   -         2       2.4635 /_ -121.1    1.0257     4.160        2-3     4.2401 /_  -91.4    1.0192
   -         3       2.4297 /_  118.8    1.0116     4.160        3-1     4.1983 /_  148.2    1.0092
58 ......... 2       2.4588 /_ -121.3    1.0237     4.160
60 ......... 1       2.3868 /_   -2.8   0.99376     4.160        1-2     4.1676 /_   28.3    1.0018
   -         2       2.4532 /_ -121.6    1.0214     4.160        2-3     4.2213 /_  -92.0    1.0147
   -         3       2.4172 /_  118.2    1.0064     4.160        3-1     4.1807 /_  147.5     1.005
59 ......... 2       2.4582 /_ -121.3    1.0235     4.160
61 ......... 1       2.3868 /_   -2.8   0.99376     4.160        1-2     4.1676 /_   28.3    1.0018
   -         2       2.4532 /_ -121.6    1.0214     4.160        2-3     4.2213 /_  -92.0    1.0147
   -         3       2.4172 /_  118.2    1.0064     4.160        3-1     4.1807 /_  147.5     1.005
62 ......... 1       2.3854 /_   -2.8   0.99317     4.160        1-2     4.1643 /_   28.3     1.001
   -         2       2.4512 /_ -121.6    1.0206     4.160        2-3     4.2169 /_  -92.0    1.0137
   -         3       2.4135 /_  118.2    1.0049     4.160        3-1      4.176 /_  147.5    1.0038
63 ......... 1       2.3843 /_   -2.7   0.99272     4.160        1-2      4.162 /_   28.3    1.0005
   -         2       2.4496 /_ -121.6    1.0199     4.160        2-3     4.2142 /_  -92.0     1.013
   -         3       2.4116 /_  118.2    1.0041     4.160        3-1     4.1731 /_  147.5    1.0032
64 ......... 1       2.3837 /_   -2.7   0.99246     4.160        1-2     4.1583 /_   28.3   0.99959
   -         2       2.4462 /_ -121.6    1.0185     4.160        2-3     4.2089 /_  -92.0    1.0118
   -         3       2.4077 /_  118.2    1.0025     4.160        3-1     4.1684 /_  147.6     1.002
65 ......... 1       2.3824 /_   -2.7   0.99193     4.160        1-2     4.1558 /_   28.3   0.99899
   -         2       2.4456 /_ -121.5    1.0182     4.160        2-3     4.2044 /_  -92.0    1.0107
   -         3       2.4023 /_  118.2    1.0002     4.160        3-1     4.1626 /_  147.6    1.0006
66 ......... 1       2.3828 /_   -2.8   0.99211     4.160        1-2     4.1557 /_   28.3   0.99898
   -         2        2.446 /_ -121.5    1.0184     4.160        2-3     4.2029 /_  -92.0    1.0103
   -         3       2.3996 /_  118.2   0.99908     4.160        3-1     4.1609 /_  147.6    1.0002
67 ......... 1       2.4739 /_   -3.0      1.03     4.160        1-2     4.2674 /_   27.7    1.0258
   -         2       2.4834 /_ -121.8     1.034     4.160        2-3     4.2966 /_  -91.9    1.0328
   -         3       2.4747 /_  118.1    1.0304     4.160        3-1     4.3083 /_  147.6    1.0356
68 ......... 1       2.4711 /_   -3.0    1.0289     4.160
72 ......... 1       2.4756 /_   -3.0    1.0307     4.160        1-2     4.2683 /_   27.6     1.026
   -         2       2.4827 /_ -121.9    1.0337     4.160        2-3     4.2965 /_  -92.0    1.0328
   -         3       2.4751 /_  118.0    1.0305     4.160        3-1     4.3097 /_  147.5     1.036
97 ......... 1       2.4721 /_   -3.0    1.0293     4.160        1-2     4.2645 /_   27.7    1.0251
   -         2       2.4825 /_ -121.8    1.0336     4.160        2-3     4.2947 /_  -91.9    1.0324
   -         3       2.4734 /_  118.1    1.0298     4.160        3-1     4.3061 /_  147.5    1.0351
69 ......... 1        2.468 /_   -3.0    1.0276     4.160
70 ......... 1       2.4657 /_   -3.0    1.0266     4.160
71 ......... 1       2.4644 /_   -3.0    1.0261     4.160
73 ......... 3       2.4712 /_  118.0    1.0289     4.160
76 ......... 1        2.476 /_   -3.1    1.0309     4.160        1-2     4.2691 /_   27.5    1.0262
   -         2       2.4824 /_ -121.9    1.0336     4.160        2-3     4.2969 /_  -92.0    1.0329
   -         3       2.4768 /_  118.0    1.0312     4.160        3-1     4.3118 /_  147.4    1.0365
74 ......... 3       2.4678 /_  117.9    1.0275     4.160
75 ......... 3        2.466 /_  117.9    1.0267     4.160
77 ......... 1       2.4791 /_   -3.2    1.0322     4.160        1-2     4.2748 /_   27.5    1.0276
   -         2       2.4856 /_ -122.0    1.0349     4.160        2-3     4.3018 /_  -92.1    1.0341
   -         3       2.4793 /_  117.9    1.0323     4.160        3-1     4.3164 /_  147.4    1.0376
86 ......... 1       2.4749 /_   -3.1    1.0304     4.160        1-2      4.268 /_   27.4     1.026
   -         2       2.4797 /_ -122.1    1.0324     4.160        2-3     4.2949 /_  -92.1    1.0324
   -         3       2.4798 /_  117.9    1.0325     4.160        3-1     4.3134 /_  147.4    1.0369
78 ......... 1       2.4799 /_   -3.2    1.0325     4.160        1-2     4.2763 /_   27.4     1.028
   -         2       2.4866 /_ -122.0    1.0353     4.160        2-3     4.3033 /_  -92.1    1.0344
   -         3       2.4799 /_  117.9    1.0325     4.160        3-1     4.3175 /_  147.3    1.0379
79 ......... 1       2.4794 /_   -3.2    1.0323     4.160        1-2     4.2759 /_   27.4    1.0279
   -         2       2.4869 /_ -122.0    1.0354     4.160        2-3     4.3032 /_  -92.1    1.0344
   -         3       2.4798 /_  117.9    1.0325     4.160        3-1     4.3174 /_  147.3    1.0378
80 ......... 1       2.4849 /_   -3.2    1.0346     4.160        1-2     4.2845 /_   27.4    1.0299
   -         2       2.4909 /_ -122.1    1.0371     4.160        2-3     4.3101 /_  -92.2    1.0361
   -         3       2.4825 /_  117.8    1.0336     4.160        3-1     4.3233 /_  147.3    1.0393
81 ......... 1       2.4868 /_   -3.2    1.0354     4.160        1-2     4.2876 /_   27.4    1.0307
   -         2       2.4929 /_ -122.1     1.038     4.160        2-3      4.313 /_  -92.3    1.0368
   -         3       2.4833 /_  117.7     1.034     4.160        3-1     4.3254 /_  147.3    1.0398
82 ......... 1        2.489 /_   -3.3    1.0363     4.160        1-2      4.292 /_   27.3    1.0317
   -         2       2.4959 /_ -122.1    1.0392     4.160        2-3     4.3173 /_  -92.3    1.0378
   -         3       2.4853 /_  117.7    1.0348     4.160        3-1      4.329 /_  147.2    1.0406
84 ......... 3       2.4786 /_  117.7     1.032     4.160
83 ......... 1       2.4917 /_   -3.3    1.0374     4.160        1-2     4.2968 /_   27.3    1.0329
   -         2       2.4986 /_ -122.2    1.0403     4.160        2-3     4.3217 /_  -92.3    1.0389
   -         3       2.4874 /_  117.7    1.0356     4.160        3-1     4.3328 /_  147.2    1.0415
85 ......... 3       2.4764 /_  117.7    1.0311     4.160
87 ......... 1       2.4742 /_   -3.1    1.0302     4.160        1-2     4.2676 /_   27.4    1.0259
   -         2       2.4786 /_ -122.1     1.032     4.160        2-3     4.2939 /_  -92.1    1.0322
   -         3        2.481 /_  117.9     1.033     4.160        3-1      4.314 /_  147.3     1.037
88 ......... 1       2.4744 /_   -3.2    1.0302     4.160
89 ......... 1       2.4733 /_   -3.1    1.0298     4.160        1-2     4.2675 /_   27.4    1.0259
   -         2       2.4783 /_ -122.2    1.0319     4.160        2-3     4.2939 /_  -92.1    1.0322
   -         3        2.482 /_  117.9    1.0334     4.160        3-1     4.3137 /_  147.3     1.037
90 ......... 2       2.4785 /_ -122.2    1.0319     4.160
91 ......... 1        2.473 /_   -3.1    1.0296     4.160        1-2      4.267 /_   27.4    1.0257
   -         2       2.4776 /_ -122.2    1.0316     4.160        2-3     4.2939 /_  -92.1    1.0322
   -         3       2.4826 /_  117.9    1.0337     4.160        3-1     4.3135 /_  147.3    1.0369
92 ......... 3       2.4829 /_  117.8    1.0338     4.160
93 ......... 1       2.4724 /_   -3.1    1.0294     4.160        1-2     4.2664 /_   27.4    1.0256
   -         2       2.4773 /_ -122.2    1.0315     4.160        2-3     4.2934 /_  -92.1    1.0321
   -         3       2.4828 /_  117.9    1.0337     4.160        3-1     4.3134 /_  147.3    1.0369
94 ......... 1       2.4711 /_   -3.1    1.0289     4.160
95 ......... 1       2.4723 /_   -3.1    1.0294     4.160        1-2     4.2662 /_   27.4    1.0255
   -         2       2.4766 /_ -122.2    1.0312     4.160        2-3     4.2929 /_  -92.1    1.0319
   -         3       2.4831 /_  117.9    1.0339     4.160        3-1     4.3134 /_  147.3    1.0369
96 ......... 2       2.4762 /_ -122.2     1.031     4.160
98 ......... 1       2.4718 /_   -3.0    1.0291     4.160        1-2     4.2638 /_   27.7    1.0249
   -         2       2.4821 /_ -121.8    1.0334     4.160        2-3      4.294 /_  -91.9    1.0322
   -         3        2.473 /_  118.1    1.0297     4.160        3-1     4.3054 /_  147.5     1.035
99 ......... 1       2.4723 /_   -3.0    1.0294     4.160        1-2     4.2633 /_   27.7    1.0248
   -         2       2.4806 /_ -121.8    1.0328     4.160        2-3     4.2926 /_  -91.9    1.0319
   -         3       2.4724 /_  118.0    1.0294     4.160        3-1     4.3045 /_  147.5    1.0347
100 ........ 1       2.4726 /_   -3.0    1.0295     4.160        1-2     4.2632 /_   27.7    1.0248
   -         2       2.4805 /_ -121.8    1.0328     4.160        2-3     4.2924 /_  -91.9    1.0318
   -         3       2.4716 /_  118.0    1.0291     4.160        3-1      4.304 /_  147.5    1.0346
450 ........ 1       2.4726 /_   -3.0    1.0295     4.160        1-2     4.2632 /_   27.7    1.0248
   -         2       2.4805 /_ -121.8    1.0328     4.160        2-3     4.2924 /_  -91.9    1.0318
   -         3       2.4716 /_  118.0    1.0291     4.160        3-1      4.304 /_  147.5    1.0346
197 ........ 1       2.4721 /_   -3.0    1.0293     4.160        1-2     4.2645 /_   27.7    1.0251
   -         2       2.4825 /_ -121.8    1.0336     4.160        2-3     4.2947 /_  -91.9    1.0324
   -         3       2.4734 /_  118.1    1.0298     4.160        3-1     4.3061 /_  147.5    1.0351
101 ........ 1       2.4706 /_   -3.0    1.0287     4.160        1-2     4.2624 /_   27.7    1.0246
   -         2       2.4821 /_ -121.8    1.0334     4.160        2-3     4.2933 /_  -91.9     1.032
   -         3       2.4724 /_  118.1    1.0294     4.160        3-1     4.3045 /_  147.5    1.0347
102 ........ 3       2.4698 /_  118.1    1.0283     4.160
105 ........ 1       2.4682 /_   -3.1    1.0277     4.160        1-2     4.2601 /_   27.6    1.0241
   -         2       2.4818 /_ -121.8    1.0333     4.160        2-3     4.2923 /_  -91.9    1.0318
   -         3       2.4729 /_  118.1    1.0296     4.160        3-1     4.3039 /_  147.5    1.0346
103 ........ 3       2.4667 /_  118.0     1.027     4.160
104 ........ 3       2.4635 /_  118.0    1.0257     4.160
106 ........ 2       2.4797 /_ -121.9    1.0324     4.160
108 ........ 1       2.4656 /_   -3.1    1.0266     4.160        1-2     4.2579 /_   27.6    1.0235
   -         2        2.483 /_ -121.8    1.0338     4.160        2-3     4.2922 /_  -91.9    1.0318
   -         3       2.4726 /_  118.1    1.0295     4.160        3-1     4.3031 /_  147.5    1.0344
107 ........ 2        2.477 /_ -121.9    1.0313     4.160
109 ........ 1       2.4581 /_   -3.2    1.0234     4.160
300 ........ 1       2.4656 /_   -3.1    1.0266     4.160        1-2     4.2579 /_   27.6    1.0235
   -         2        2.483 /_ -121.8    1.0338     4.160        2-3     4.2922 /_  -91.9    1.0318
   -         3       2.4726 /_  118.1    1.0295     4.160        3-1     4.3031 /_  147.5    1.0344
110 ........ 1       2.4545 /_   -3.2    1.0219     4.160
111 ........ 1       2.4531 /_   -3.2    1.0214     4.160
112 ........ 1       2.4533 /_   -3.2    1.0214     4.160
113 ........ 1       2.4495 /_   -3.2    1.0199     4.160
114 ........ 1       2.4487 /_   -3.2    1.0196     4.160
135 ........ 1          2.4 /_   -1.8   0.99926     4.160        1-2     4.1905 /_   29.0    1.0073
   -         2       2.4591 /_ -121.0    1.0239     4.160        2-3     4.2281 /_  -91.2    1.0164
   -         3       2.4239 /_  119.1    1.0092     4.160        3-1     4.1958 /_  148.5    1.0086
152 ........ 1       2.4164 /_   -1.5    1.0061     4.160        1-2     4.2138 /_   29.2    1.0129
   -         2       2.4666 /_ -120.8     1.027     4.160        2-3     4.2492 /_  -91.0    1.0214
   -         3       2.4374 /_  119.1    1.0148     4.160        3-1     4.2161 /_  148.7    1.0135
160R ....... 1       2.4763 /_   -2.8     1.031     4.160        1-2     4.2709 /_   27.9    1.0267
   -         2       2.4839 /_ -121.6    1.0342     4.160        2-3     4.3002 /_  -91.7    1.0337
   -         3       2.4776 /_  118.2    1.0316     4.160        3-1     4.3112 /_  147.7    1.0363
160 ........ 1       2.3868 /_   -2.8   0.99376     4.160        1-2     4.1676 /_   28.3    1.0018
   -         2       2.4532 /_ -121.6    1.0214     4.160        2-3     4.2213 /_  -92.0    1.0147
   -         3       2.4172 /_  118.2    1.0064     4.160        3-1     4.1807 /_  147.5     1.005
61S ........ 1       2.3868 /_   -2.8   0.99376     4.160        1-2     4.1676 /_   28.3    1.0018
   -         2       2.4532 /_ -121.6    1.0214     4.160        2-3     4.2213 /_  -92.0    1.0147
   -         3       2.4172 /_  118.2    1.0064     4.160        3-1     4.1807 /_  147.5     1.005
300_OPEN ... 1       2.3847 /_   -2.0   0.99287     4.160        1-2     4.1664 /_   28.9    1.0015
   -         2       2.4464 /_ -121.1    1.0186     4.160        2-3     4.2086 /_  -91.3    1.0117
   -         3       2.4139 /_  118.9    1.0051     4.160        3-1     4.1735 /_  148.3    1.0032
94_OPEN .... 1       2.4003 /_   -2.0    0.9994     4.160
610 ........ 1      0.27702 /_   -2.2    0.9996     0.480        1-2    0.48087 /_   28.3    1.0018
   -         2      0.27973 /_ -121.6    1.0094     0.480        2-3    0.48707 /_  -92.0    1.0147
   -         3       0.2806 /_  117.6    1.0125     0.480        3-1    0.48239 /_  147.5     1.005
